@<TRIPOS>MOLECULE
****
45 48 1 0 0
SMALL
USER_CHARGES


@<TRIPOS>ATOM
      1 C          -4.4805   -0.7800   -0.0727 C.2       1     ****    0.0000
      2 C          -4.8545    0.4898   -0.4113 C.2       1     ****    0.0000
      3 C          -5.4015   -1.7672   -0.2479 C.ar      1     ****    0.0000
      4 C          -3.2217   -1.1301    0.3037 C.ar      1     ****    0.0000
      5 C          -3.8596    1.4212   -1.1131 C.3       1     ****    0.0000
      6 C          -6.1139    0.9642   -0.1858 C.ar      1     ****    0.0000
      7 C          -5.4717   -2.8497    0.5553 C.ar      1     ****    0.0000
      8 C          -6.3963   -3.8082    0.3897 C.ar      1     ****    0.0000
      9 C          -7.3085   -3.7393   -0.5919 C.ar      1     ****    0.0000
     10 C          -7.2589   -2.6638   -1.3925 C.ar      1     ****    0.0000
     11 C          -6.3350   -1.7056   -1.2222 C.ar      1     ****    0.0000
     12 C          -6.5796    2.0959   -0.7600 C.ar      1     ****    0.0000
     13 C          -7.8137    2.5761   -0.5380 C.ar      1     ****    0.0000
     14 C          -8.6440    1.9439    0.3006 C.ar      1     ****    0.0000
     15 C          -8.2069    0.8408    0.9204 C.ar      1     ****    0.0000
     16 C          -6.9684    0.3793    0.6839 C.ar      1     ****    0.0000
     17 N          -3.6311    2.6806   -0.3815 N.ar      1     ****    0.0000
     18 C          -3.7530    2.8399    0.8688 C.ar      1     ****    0.0000
     19 N          -3.4976    4.0405    1.1804 N.ar      1     ****    0.0000
     20 C          -3.2133    4.6160    0.0862 C.ar      1     ****    0.0000
     21 C          -3.2901    3.7614   -0.9450 C.ar      1     ****    0.0000
     22 O          -8.2523   -4.7030   -0.7637 O.3       1     ****    0.0000
     23 C          -2.6852   -2.3646    0.2268 C.ar      1     ****    0.0000
     24 C          -1.4166   -2.3886    0.6434 C.ar      1     ****    0.0000
     25 C          -1.0720   -1.1516    1.0066 C.ar      1     ****    0.0000
     26 S          -2.1717   -0.2122    0.7874 S.2       1     ****    0.0000
     27 O           0.1439   -0.7495    1.4634 O.3       1     ****    0.0000
     28 H          -2.8900    0.9529   -1.3796 H         1     ****    0.0000
     29 H          -4.2585    1.6265   -2.1339 H         1     ****    0.0000
     30 H          -4.8071   -2.9583    1.4296 H         1     ****    0.0000
     31 H          -6.4253   -4.6637    1.0858 H         1     ****    0.0000
     32 H          -7.9921   -2.5728   -2.2119 H         1     ****    0.0000
     33 H          -6.3530   -0.8749   -1.9487 H         1     ****    0.0000
     34 H          -5.9825    2.6874   -1.4703 H         1     ****    0.0000
     35 H          -8.1519    3.4955   -1.0456 H         1     ****    0.0000
     36 H          -9.6566    2.3350    0.4930 H         1     ****    0.0000
     37 H          -8.8633    0.3266    1.6428 H         1     ****    0.0000
     38 H          -6.6799   -0.4936    1.2906 H         1     ****    0.0000
     39 H          -4.0434    2.0534    1.5729 H         1     ****    0.0000
     40 H          -2.9460    5.6791    0.0271 H         1     ****    0.0000
     41 H          -3.1206    3.8958   -2.0170 H         1     ****    0.0000
     42 H          -8.8288   -4.4533   -1.5038 H         1     ****    0.0000
     43 H          -3.1635   -3.2774   -0.1550 H         1     ****    0.0000
     44 H          -0.7633   -3.2709    0.6728 H         1     ****    0.0000
     45 H           0.3038    0.1804    1.2351 H         1     ****    0.0000
@<TRIPOS>BOND
     1     1     2     2
     2     1     3     1
     3     1     4     1
     4     2     5     1
     5     2     6     1
     6     3     7     1
     7     3    11     2
     8     4    23     2
     9     4    26     1
    10     5    17     1
    11     5    28     1
    12     5    29     1
    13     6    12     1
    14     6    16     2
    15     7     8     2
    16     7    30     1
    17     8     9     1
    18     8    31     1
    19     9    10     2
    20     9    22     1
    21    10    11     1
    22    10    32     1
    23    11    33     1
    24    12    13     2
    25    12    34     1
    26    13    14     1
    27    13    35     1
    28    14    15     2
    29    14    36     1
    30    15    16     1
    31    15    37     1
    32    16    38     1
    33    17    18     1
    34    17    21     1
    35    18    19     2
    36    18    39     1
    37    19    20     1
    38    20    21     2
    39    20    40     1
    40    21    41     1
    41    22    42     1
    42    23    24     1
    43    23    43     1
    44    24    25     2
    45    24    44     1
    46    25    26     1
    47    25    27     1
    48    27    45     1
