REMARK  7 active torsions:
REMARK  status: ('A' for Active; 'I' for Inactive)
REMARK    1  A    between atoms: C_1  and  C_3 
REMARK    2  A    between atoms: C_1  and  C_4 
REMARK    3  A    between atoms: C_2  and  C_5 
REMARK    4  A    between atoms: C_2  and  C_6 
REMARK    5  A    between atoms: C_5  and  N_17 
REMARK    6  A    between atoms: C_9  and  O_22 
REMARK    7  A    between atoms: C_25  and  O_27 
ROOT
HETATM    1  C   ***     1     -10.531  48.767 333.322  1.00  0.00     0.000 C 
HETATM    2  C   ***     1     -11.750  48.285 332.935  1.00  0.00    -0.017 C 
ENDROOT
BRANCH   1   3
HETATM    3  C   ***     1      -9.432  48.076 332.913  1.00  0.00    -0.024 A 
HETATM    4  C   ***     1      -8.305  47.995 333.652  1.00  0.00     0.015 A 
HETATM    5  C   ***     1      -7.232  47.295 333.252  1.00  0.00     0.037 A 
HETATM    6  C   ***     1      -7.224  46.631 332.086  1.00  0.00     0.065 A 
HETATM    7  C   ***     1      -8.341  46.692 331.345  1.00  0.00     0.037 A 
HETATM    8  C   ***     1      -9.413  47.391 331.749  1.00  0.00     0.015 A 
BRANCH   6   9
HETATM    9  O   ***     1      -6.144  45.914 331.676  1.00  0.00    -0.361 OA
HETATM   10  H   ***     1      -6.350  45.490 330.827  1.00  0.00     0.217 HD
ENDBRANCH   6   9
ENDBRANCH   1   3
BRANCH   1  11
HETATM   11  C   ***     1     -10.349  49.945 333.974  1.00  0.00     0.019 A 
HETATM   12  C   ***     1      -9.213  50.672 333.996  1.00  0.00     0.023 A 
HETATM   13  C   ***     1      -9.351  51.800 334.698  1.00  0.00     0.045 A 
HETATM   14  C   ***     1     -10.602  51.855 335.160  1.00  0.00     0.107 A 
HETATM   15  S   ***     1     -11.381  50.700 334.712  1.00  0.00    -0.065 SA
BRANCH  14  16
HETATM   16  O   ***     1     -11.151  52.856 335.898  1.00  0.00    -0.354 OA
HETATM   17  H   ***     1     -12.106  52.916 335.736  1.00  0.00     0.218 HD
ENDBRANCH  14  16
ENDBRANCH   1  11
BRANCH   2  18
HETATM   18  C   ***     1     -12.858  49.255 332.507  1.00  0.00     0.169 C 
BRANCH  18  19
HETATM   19  N   ***     1     -14.091  49.111 333.301  1.00  0.00    -0.346 N 
HETATM   20  C   ***     1     -14.157  48.684 334.492  1.00  0.00     0.209 A 
HETATM   21  N   ***     1     -15.361  48.670 334.882  1.00  0.00    -0.255 NA
HETATM   22  C   ***     1     -16.036  49.102 333.899  1.00  0.00     0.135 A 
HETATM   23  C   ***     1     -15.242  49.397 332.859  1.00  0.00     0.111 A 
ENDBRANCH  18  19
ENDBRANCH   2  18
BRANCH   2  24
HETATM   24  C   ***     1     -12.020  46.949 332.870  1.00  0.00    -0.027 A 
HETATM   25  C   ***     1     -13.103  46.455 332.230  1.00  0.00     0.012 A 
HETATM   26  C   ***     1     -13.382  45.143 332.168  1.00  0.00     0.001 A 
HETATM   27  C   ***     1     -12.587  44.253 332.773  1.00  0.00     0.000 A 
HETATM   28  C   ***     1     -11.525  44.705 333.452  1.00  0.00     0.001 A 
HETATM   29  C   ***     1     -11.265  46.022 333.502  1.00  0.00     0.012 A 
ENDBRANCH   2  24
TORSDOF 7
